Version 4
SHEET 1 2260 680
WIRE 704 -368 672 -368
WIRE 832 -368 784 -368
WIRE 512 -336 496 -336
WIRE 592 -336 576 -336
WIRE 672 -336 672 -368
WIRE 672 -256 672 -336
WIRE 688 -256 672 -256
WIRE 832 -256 832 -368
WIRE 832 -256 752 -256
WIRE 336 -224 64 -224
WIRE 1088 -224 944 -224
WIRE 1216 -224 1088 -224
WIRE 1424 -176 1360 -176
WIRE 1600 -176 1504 -176
WIRE 2064 -176 1824 -176
WIRE 672 -160 672 -256
WIRE 720 -160 672 -160
WIRE 832 -160 832 -256
WIRE 832 -160 784 -160
WIRE 1088 -144 1088 -224
WIRE 1216 -144 1216 -224
WIRE 944 -128 944 -224
WIRE 1600 -80 1600 -176
WIRE 1600 -80 1472 -80
WIRE 1632 -80 1600 -80
WIRE 2064 -80 2064 -176
WIRE 2064 -80 1936 -80
WIRE 2096 -80 2064 -80
WIRE 2256 -80 2160 -80
WIRE 1360 -64 1360 -176
WIRE 1408 -64 1360 -64
WIRE 1824 -64 1824 -176
WIRE 1872 -64 1824 -64
WIRE 784 -32 752 -32
WIRE 1088 -32 1088 -64
WIRE 1216 -32 1216 -64
WIRE 1216 -32 1088 -32
WIRE 1264 -32 1216 -32
WIRE 1360 -32 1360 -64
WIRE 1360 -32 1344 -32
WIRE 1408 -32 1376 -32
WIRE 1632 -32 1632 -80
WIRE 1680 -32 1632 -32
WIRE 1872 -32 1760 -32
WIRE 336 -16 336 -224
WIRE 336 -16 224 -16
WIRE 672 -16 672 -160
WIRE 688 -16 672 -16
WIRE 1088 -16 1088 -32
WIRE 1216 -16 1216 -32
WIRE 1504 -16 1472 -16
WIRE 1968 -16 1936 -16
WIRE 64 0 64 -224
WIRE 160 0 64 0
WIRE 784 0 784 -32
WIRE 832 0 832 -160
WIRE 832 0 784 0
WIRE 848 0 832 0
WIRE 944 0 944 -48
WIRE 944 0 928 0
WIRE 336 16 336 -16
WIRE 432 16 336 16
WIRE 688 16 512 16
WIRE 64 32 -64 32
WIRE 160 32 64 32
WIRE 784 32 752 32
WIRE -64 48 -64 32
WIRE 272 48 224 48
WIRE 1088 96 1088 64
WIRE -64 128 -64 112
WIRE 1376 128 1376 -32
WIRE 1504 128 1376 128
WIRE 1088 192 1088 176
WIRE 1216 192 1216 64
WIRE 1216 192 1088 192
WIRE 272 208 272 176
WIRE 1088 208 1088 192
WIRE -64 240 -64 208
WIRE -32 240 -32 224
WIRE 64 288 64 112
WIRE 272 288 64 288
WIRE 432 288 272 288
WIRE 992 288 432 288
WIRE 1088 288 1088 272
WIRE 992 336 992 288
WIRE 1504 336 1504 128
WIRE 1504 336 992 336
WIRE 432 368 432 352
WIRE 432 368 272 368
WIRE 272 384 272 368
WIRE -16 416 -16 368
WIRE -16 544 -16 496
FLAG -64 240 0
FLAG 944 64 0
FLAG 496 -336 0
FLAG 224 16 0
FLAG 752 0 0
FLAG -16 544 0
FLAG -16 368 9V
FLAG 784 32 9V
FLAG 272 48 9V
FLAG 272 384 0
FLAG 272 176 9V
FLAG 1936 -48 0
FLAG 1968 -16 9V
FLAG 1088 288 0
FLAG 1472 -48 0
FLAG 1504 -16 9V
SYMBOL voltage -64 112 R0
WINDOW 123 0 0 Left 0
WINDOW 39 0 0 Left 0
WINDOW 3 -249 95 Left 2
SYMATTR InstName V1
SYMATTR Value SINE(0 100m 400)
SYMBOL cap -80 48 R0
SYMATTR InstName C1
SYMATTR Value 6.8n
SYMBOL res 48 16 R0
SYMATTR InstName R1
SYMATTR Value 1000k
SYMBOL res 256 192 R0
SYMATTR InstName R2
SYMATTR Value 10k
SYMBOL res 256 272 R0
SYMATTR InstName R3
SYMATTR Value 10k
SYMBOL res 528 0 R90
WINDOW 0 0 56 VBottom 2
WINDOW 3 32 56 VTop 2
SYMATTR InstName R4
SYMATTR Value 1k
SYMBOL diode 688 -272 M90
WINDOW 0 0 32 VBottom 2
WINDOW 3 32 32 VTop 2
SYMATTR InstName D2
SYMATTR Value 1N4148
SYMBOL res 800 -384 R90
WINDOW 0 0 56 VBottom 2
WINDOW 3 32 56 VTop 2
SYMATTR InstName R5
SYMATTR Value 300k
SYMBOL res 944 -16 R90
WINDOW 0 0 56 VBottom 2
WINDOW 3 32 56 VTop 2
SYMATTR InstName R6
SYMATTR Value 1k
SYMBOL cap 928 0 R0
SYMATTR InstName C5
SYMATTR Value 110n
SYMBOL res 688 -352 R90
WINDOW 0 0 56 VBottom 2
WINDOW 3 32 56 VTop 2
SYMATTR InstName R9
SYMATTR Value 2.2k
SYMBOL diode 784 -176 R90
WINDOW 0 0 32 VBottom 2
WINDOW 3 32 32 VTop 2
SYMATTR InstName D1
SYMATTR Value 1N4148
SYMBOL cap 576 -352 R90
WINDOW 0 0 32 VBottom 2
WINDOW 3 32 32 VTop 2
SYMATTR InstName C6
SYMATTR Value 220n
SYMBOL TL072 720 0 M180
SYMATTR InstName U2
SYMBOL res 1072 -160 R0
SYMATTR InstName R7
SYMATTR Value 300k
SYMBOL res 1072 -32 R0
SYMATTR InstName R8
SYMATTR Value 200k
SYMBOL voltage -16 400 R0
WINDOW 123 0 0 Left 0
WINDOW 39 0 0 Left 0
SYMATTR InstName V3
SYMATTR Value 9
SYMBOL TL072 192 16 M180
SYMATTR InstName U1
SYMBOL res 928 -144 R0
SYMATTR InstName R10
SYMATTR Value 9k
SYMBOL res 1200 -160 R0
SYMATTR InstName R11
SYMATTR Value 20k
SYMBOL res 1200 -32 R0
SYMATTR InstName R12
SYMATTR Value 10k
SYMBOL res 1072 80 R0
SYMATTR InstName R14
SYMATTR Value 10k
SYMBOL TL072 1904 -48 M180
SYMATTR InstName U3
SYMBOL cap 2160 -96 R90
WINDOW 0 0 32 VBottom 2
WINDOW 3 32 32 VTop 2
SYMATTR InstName C2
SYMATTR Value 1µ
SYMBOL cap 1072 208 R0
SYMATTR InstName C3
SYMATTR Value 4.7µ
SYMBOL TL072 1440 -48 M180
SYMATTR InstName U4
SYMBOL res 1520 -192 R90
WINDOW 0 0 56 VBottom 2
WINDOW 3 32 56 VTop 2
SYMATTR InstName R13
SYMATTR Value 100k
SYMBOL cap 2016 80 R90
WINDOW 0 0 32 VBottom 2
WINDOW 3 32 32 VTop 2
SYMATTR InstName C7
SYMATTR Value 1µ
SYMBOL res 1776 -48 R90
WINDOW 0 0 56 VBottom 2
WINDOW 3 32 56 VTop 2
SYMATTR InstName R16
SYMATTR Value 1k
SYMBOL cap 416 288 R0
SYMATTR InstName C8
SYMATTR Value 47µ
SYMBOL res 1360 -48 R90
WINDOW 0 0 56 VBottom 2
WINDOW 3 32 56 VTop 2
SYMATTR InstName R17
SYMATTR Value 10k
TEXT -96 264 Left 2 !.tran 10ms
